Version 4.1
SHEET 1 880 680
WIRE -496 -144 -528 -144
WIRE -464 -144 -496 -144
WIRE -528 -112 -528 -144
WIRE -464 -112 -464 -144
WIRE -528 -16 -528 -48
WIRE -496 -16 -528 -16
WIRE -464 -16 -464 -48
WIRE -464 -16 -496 -16
WIRE -496 0 -496 -16
WIRE 576 64 576 0
WIRE 416 144 320 144
WIRE 576 144 496 144
WIRE 576 208 576 144
WIRE 576 208 320 208
FLAG -672 -32 0
FLAG 96 80 0
FLAG -672 -112 +18V
FLAG 320 80 +18V
FLAG -496 0 0
FLAG -496 -144 +18V
FLAG 576 0 +18V
FLAG 96 144 TRIG
FLAG 576 208 TRIG
SYMBOL Misc\\NE555 208 176 R0
SYMATTR InstName U1
SYMBOL voltage -672 -128 R0
SYMATTR InstName V1
SYMBOL cap -544 -112 R0
SYMATTR InstName C1
SYMBOL cap -480 -112 R0
SYMATTR InstName C2
SYMBOL res 512 128 R90
WINDOW 0 0 56 VBottom 2
WINDOW 3 32 56 VTop 2
SYMATTR InstName R1
SYMBOL res 592 160 R180
WINDOW 0 36 76 Left 2
WINDOW 3 36 40 Left 2
SYMATTR InstName R2
