Version 4.1
SHEET 1 880 680
WIRE -496 -144 -528 -144
WIRE -464 -144 -496 -144
WIRE -528 -112 -528 -144
WIRE -464 -112 -464 -144
WIRE 576 -96 576 -144
WIRE -528 -16 -528 -48
WIRE -496 -16 -528 -16
WIRE -464 -16 -464 -48
WIRE -464 -16 -496 -16
WIRE -496 0 -496 -16
WIRE 576 16 576 -16
WIRE 576 16 464 16
WIRE 352 80 320 80
WIRE 576 96 576 16
WIRE 96 144 32 144
WIRE 464 144 464 16
WIRE 464 144 320 144
WIRE 64 208 -96 208
WIRE 96 208 64 208
WIRE 576 208 576 176
WIRE 576 208 320 208
WIRE -96 224 -96 208
WIRE 576 256 576 208
FLAG -672 -32 0
FLAG 96 80 0
FLAG -672 -112 +18V
FLAG 352 80 +18V
FLAG -496 0 0
FLAG -496 -144 +18V
FLAG 576 -144 +18V
FLAG 32 144 TRIG
FLAG 576 208 TRIG
FLAG 576 320 0
FLAG 96 272 +18V
FLAG 64 208 OUT
FLAG -96 304 0
SYMBOL Misc\\NE555 208 176 R0
SYMATTR InstName U1
SYMBOL voltage -672 -128 R0
WINDOW 123 0 0 Left 0
WINDOW 39 0 0 Left 0
SYMATTR InstName V1
SYMATTR Value 18
SYMBOL cap -544 -112 R0
SYMATTR InstName C1
SYMATTR Value 10n
SYMBOL cap -480 -112 R0
SYMATTR InstName C2
SYMATTR Value 10n
SYMBOL res 592 192 R180
WINDOW 0 36 76 Left 2
WINDOW 3 36 40 Left 2
SYMATTR InstName R1
SYMATTR Value 10k
SYMBOL res 592 0 R180
WINDOW 0 36 76 Left 2
WINDOW 3 36 40 Left 2
SYMATTR InstName R2
SYMATTR Value 10k
SYMBOL cap 560 256 R0
SYMATTR InstName C3
SYMATTR Value 1µ
SYMBOL res -112 208 R0
SYMATTR InstName R3
SYMATTR Value 10k
TEXT -704 344 Left 2 !.tran 1
